<?xml version="1.0" encoding="UTF-8"?>

<!-- generated on 02/12/21 16:19:20 by Eclipse SUMO netedit Version 1.7.0
<configuration xmlns:xsi="http://www.w3.org/2001/XMLSchema-instance" xsi:noNamespaceSchemaLocation="http://sumo.dlr.de/xsd/netconvertConfiguration.xsd">

    <input>
        <sumo-net-file value="E:\escape_docs\Code\itms\hello\ravindra\lanePlus\osm.net.xml"/>
    </input>

    <output>
        <output-file value="E:\escape_docs\Code\itms\hello\ravindra\lanePlus\osm.net.xml"/>
        <output.street-names value="true"/>
    </output>

    <processing>
        <geometry.min-radius.fix.railways value="false"/>
        <geometry.max-grade.fix value="false"/>
        <offset.disable-normalization value="true"/>
        <lefthand value="true"/>
    </processing>

    <junctions>
        <no-turnarounds value="true"/>
        <junctions.corner-detail value="5"/>
        <junctions.limit-turn-speed value="5.5"/>
        <rectangular-lane-cut value="false"/>
    </junctions>

    <pedestrian>
        <walkingareas value="false"/>
    </pedestrian>

    <netedit>
        <additional-files value="E:\escape_docs\Code\itms\hello\ravindra\lanePlus\base\detE3.add.xml"/>
    </netedit>

    <report>
        <aggregate-warnings value="5"/>
    </report>

</configuration>
-->

<additional xmlns:xsi="http://www.w3.org/2001/XMLSchema-instance" xsi:noNamespaceSchemaLocation="http://sumo.dlr.de/xsd/additional_file.xsd">
    <e3Detector id="oldpssaifabad_detector" pos="2267.29,2893.86" freq="900.00" file="data/oldpssaifabad_detector.xml">
        <detEntry lane="oldpssaifabad_entry_0" pos="155"/>
        <detEntry lane="oldpssaifabad_entry_1" pos="155"/>
        <detEntry lane="oldpssaifabad_entry_2" pos="155"/>
        <detEntry lane="oldpssaifabad_entry_3" pos="155"/>
        <detExit lane="311371526_0" pos="10"/>
        <detExit lane="207693436#7_0" pos="10"/>
        <detExit lane="207693436#7_1" pos="10"/>
        <detExit lane="207693436#7_2" pos="10"/>
        <detExit lane="207693436#7_3" pos="10"/>
        <detExit lane="207693436#7_4" pos="10"/>
    </e3Detector>
    <e3Detector id="iqbalminar_detector" pos="2408.37,2899.26" freq="900.00" file="data/iqbalminar_detector.xml">
        <detEntry lane="iqbalminar_entry_0" pos="98"/>
        <detEntry lane="iqbalminar_entry_1" pos="98"/>
        <detEntry lane="iqbalminar_entry_2" pos="98"/>
        <detEntry lane="iqbalminar_entry_3" pos="98"/>
        <detExit lane="iqbalminar_entry_0" pos="198"/>
        <detExit lane="iqbalminar_entry_1" pos="198"/>
        <detExit lane="iqbalminar_entry_2" pos="198"/>
        <detExit lane="iqbalminar_entry_3" pos="198"/>
    </e3Detector>
    <e3Detector id="pcr_detector" pos="2380.71,2802.88" freq="900.00" file="data/pcr_detector.xml">
        <detEntry lane="pcr_entry_0" pos="166"/>
        <detEntry lane="pcr_entry_1" pos="166"/>
        <detEntry lane="pcr_entry_2" pos="166"/>
        <detEntry lane="pcr_entry_3" pos="166"/>
        <detEntry lane="pcr_entry_4" pos="166"/>
        <detEntry lane="pcr_entry_5" pos="166"/>
        <detEntry lane="pcr_entry_6" pos="166"/>
        <detEntry lane="pcr_entry_7" pos="166"/>
        <detExit lane="pcr_entry_0" pos="266"/>
        <detExit lane="pcr_entry_1" pos="266"/>
        <detExit lane="pcr_entry_2" pos="266"/>
        <detExit lane="pcr_entry_3" pos="266"/>
        <detExit lane="pcr_entry_4" pos="266"/>
        <detExit lane="pcr_entry_5" pos="266"/>
        <detExit lane="pcr_entry_6" pos="266"/>
        <detExit lane="pcr_entry_7" pos="266"/>
    </e3Detector>
</additional>
