<?xml version="1.0" ?>
<additional>
  <tlLogic id="cluster_2177311110_2422989108_289917156_308769395" type="static" programID="1" offset="0">
    <phase duration="30" state="GGGGGGGGGGGGrrrrrrrrrrr" minDur="10" maxDur="100" name="pcr"/>
    <phase duration="5" state="GGGGGYYYYYYGrrrrrrrrrrr" minDur="10" maxDur="100" name="amber0"/>
    <phase duration="15" state="GGGGgrrrrrrGGGGGGrrrrrr" minDur="10" maxDur="100" name="iqbalminar"/>
    <phase duration="5" state="GGGGgrrrrrrGYYYYYrrrrrr" minDur="10" maxDur="100" name="amber1"/>
    <phase duration="81" state="GGGGGrrrrrrgrrrrrGGGGGG" minDur="10" maxDur="100" name="oldpssaifabad"/>
    <phase duration="5" state="GGGGGrrrrrrGrrrryYYYYYY" minDur="10" maxDur="100" name="amber2"/>
  </tlLogic>
</additional>
