<?xml version="1.0" ?>
<additional>
  <tlLogic id="cluster_2177311110_2422989108_289917156_308769395" offset="0" programID="1" type="static">
    <phase duration="30" maxDur="100" minDur="10" name="pcr" state="GGGGGGGGGGGGrrrrrrrrrrr"/>
    <phase duration="5" maxDur="100" minDur="10" name="amber0" state="GGGGGYYYYYYGrrrrrrrrrrr"/>
    <phase duration="15" maxDur="100" minDur="10" name="iqbalminar" state="GGGGgrrrrrrGGGGGGrrrrrr"/>
    <phase duration="5" maxDur="100" minDur="10" name="amber1" state="GGGGgrrrrrrGYYYYYrrrrrr"/>
    <phase duration="76" maxDur="100" minDur="10" name="oldpssaifabad" state="GGGGGrrrrrrgrrrrrGGGGGG"/>
    <phase duration="5" maxDur="100" minDur="10" name="amber2" state="GGGGGrrrrrrGrrrryYYYYYY"/>
  </tlLogic>
</additional>
