<?xml version="1.0" ?>
<routes>
	<vType id="veh_passenger" vClass="passenger" minGap="0.8" carFollowModel="Krauss" maxSpeed="85" accel="2.9" minGapLat="0.5" />
	<vType id="veh_bus" vClass="bus" minGap="0.8" carFollowModel="Krauss" maxSpeed="60" accel="1" minGapLat="0.8" />
	<vType id="veh_bike" vClass="motorcycle" minGap="0.01" carFollowModel="Krauss" maxSpeed="70" accel="6" minGapLat="0.01"/>
	<vType id="veh_other" vClass="passenger" minGap="0.5" carFollowModel="Krauss" maxSpeed="60" accel="2" minGapLat="0.2"/>
	<trip id="0" type="veh_passenger" depart="0.0" from="pcr_entry" to="oldpssaifabad_exit" departLane="best" departSpeed="random"/>
	<trip id="1" type="veh_bus" depart="0.3939161833898676" from="pcr_entry" to="iqbalminar_exit" departLane="best" departSpeed="random"/>
	<trip id="2" type="veh_bus" depart="0.7878323667797352" from="pcr_entry" to="oldpssaifabad_exit" departLane="best" departSpeed="random"/>
	<trip id="3" type="veh_other" depart="1.1817485501696028" from="oldpssaifabad_entry" to="oldpssaifabad_exit" departLane="best" departSpeed="random"/>
	<trip id="4" type="veh_bike" depart="1.5756647335594705" from="pcr_entry" to="oldpssaifabad_exit" departLane="best" departSpeed="random"/>
	<trip id="5" type="veh_passenger" depart="1.969580916949338" from="pcr_entry" to="oldpssaifabad_exit" departLane="best" departSpeed="random"/>
	<trip id="6" type="veh_bus" depart="2.3634971003392056" from="pcr_entry" to="oldpssaifabad_exit" departLane="best" departSpeed="random"/>
	<trip id="7" type="veh_passenger" depart="2.7574132837290732" from="pcr_entry" to="oldpssaifabad_exit" departLane="best" departSpeed="random"/>
	<trip id="8" type="veh_bike" depart="3.151329467118941" from="pcr_entry" to="oldpssaifabad_exit" departLane="best" departSpeed="random"/>
	<trip id="9" type="veh_bike" depart="3.5452456505088086" from="iqbalminar_entry" to="pcr_exit" departLane="best" departSpeed="random"/>
	<trip id="10" type="veh_passenger" depart="3.939161833898676" from="iqbalminar_entry" to="oldpssaifabad_exit" departLane="best" departSpeed="random"/>
	<trip id="11" type="veh_bus" depart="4.3330780172885435" from="iqbalminar_entry" to="pcr_exit" departLane="best" departSpeed="random"/>
	<trip id="12" type="veh_bike" depart="4.726994200678411" from="pcr_entry" to="oldpssaifabad_exit" departLane="best" departSpeed="random"/>
	<trip id="13" type="veh_bike" depart="5.120910384068279" from="pcr_entry" to="iqbalminar_exit" departLane="best" departSpeed="random"/>
	<trip id="14" type="veh_bike" depart="5.5148265674581465" from="oldpssaifabad_entry" to="pcr_exit" departLane="best" departSpeed="random"/>
	<trip id="15" type="veh_passenger" depart="5.908742750848014" from="oldpssaifabad_entry" to="pcr_exit" departLane="best" departSpeed="random"/>
	<trip id="16" type="veh_bike" depart="6.302658934237882" from="oldpssaifabad_entry" to="iqbalminar_exit" departLane="best" departSpeed="random"/>
	<trip id="17" type="veh_bike" depart="6.6965751176277495" from="pcr_entry" to="oldpssaifabad_exit" departLane="best" departSpeed="random"/>
	<trip id="18" type="veh_bike" depart="7.090491301017617" from="pcr_entry" to="oldpssaifabad_exit" departLane="best" departSpeed="random"/>
	<trip id="19" type="veh_bike" depart="7.484407484407485" from="pcr_entry" to="oldpssaifabad_exit" departLane="best" departSpeed="random"/>
	<trip id="20" type="veh_passenger" depart="7.878323667797352" from="pcr_entry" to="oldpssaifabad_exit" departLane="best" departSpeed="random"/>
	<trip id="21" type="veh_passenger" depart="8.27223985118722" from="pcr_entry" to="oldpssaifabad_exit" departLane="best" departSpeed="random"/>
	<trip id="22" type="veh_passenger" depart="8.666156034577087" from="pcr_entry" to="iqbalminar_exit" departLane="best" departSpeed="random"/>
	<trip id="23" type="veh_bike" depart="9.060072217966955" from="oldpssaifabad_entry" to="pcr_exit" departLane="best" departSpeed="random"/>
	<trip id="24" type="veh_bike" depart="9.453988401356822" from="pcr_entry" to="oldpssaifabad_exit" departLane="best" departSpeed="random"/>
	<trip id="25" type="veh_bike" depart="9.84790458474669" from="oldpssaifabad_entry" to="pcr_exit" departLane="best" departSpeed="random"/>
	<trip id="26" type="veh_bike" depart="10.241820768136558" from="oldpssaifabad_entry" to="pcr_exit" departLane="best" departSpeed="random"/>
	<trip id="27" type="veh_passenger" depart="10.635736951526425" from="oldpssaifabad_entry" to="iqbalminar_exit" departLane="best" departSpeed="random"/>
	<trip id="28" type="veh_passenger" depart="11.029653134916293" from="pcr_entry" to="oldpssaifabad_exit" departLane="best" departSpeed="random"/>
	<trip id="29" type="veh_passenger" depart="11.42356931830616" from="pcr_entry" to="iqbalminar_exit" departLane="best" departSpeed="random"/>
	<trip id="30" type="veh_bike" depart="11.817485501696028" from="pcr_entry" to="oldpssaifabad_exit" departLane="best" departSpeed="random"/>
	<trip id="31" type="veh_bike" depart="12.211401685085896" from="pcr_entry" to="iqbalminar_exit" departLane="best" departSpeed="random"/>
	<trip id="32" type="veh_bike" depart="12.605317868475764" from="oldpssaifabad_entry" to="pcr_exit" departLane="best" departSpeed="random"/>
	<trip id="33" type="veh_passenger" depart="12.999234051865631" from="oldpssaifabad_entry" to="pcr_exit" departLane="best" departSpeed="random"/>
	<trip id="34" type="veh_bike" depart="13.393150235255499" from="iqbalminar_entry" to="oldpssaifabad_exit" departLane="best" departSpeed="random"/>
	<trip id="35" type="veh_other" depart="13.787066418645367" from="oldpssaifabad_entry" to="pcr_exit" departLane="best" departSpeed="random"/>
	<trip id="36" type="veh_other" depart="14.180982602035234" from="pcr_entry" to="iqbalminar_exit" departLane="best" departSpeed="random"/>
	<trip id="37" type="veh_bike" depart="14.574898785425102" from="oldpssaifabad_entry" to="iqbalminar_exit" departLane="best" departSpeed="random"/>
	<trip id="38" type="veh_other" depart="14.96881496881497" from="pcr_entry" to="oldpssaifabad_exit" departLane="best" departSpeed="random"/>
	<trip id="39" type="veh_bike" depart="15.362731152204836" from="oldpssaifabad_entry" to="pcr_exit" departLane="best" departSpeed="random"/>
	<trip id="40" type="veh_passenger" depart="15.756647335594703" from="pcr_entry" to="iqbalminar_exit" departLane="best" departSpeed="random"/>
	<trip id="41" type="veh_other" depart="16.150563518984573" from="oldpssaifabad_entry" to="iqbalminar_exit" departLane="best" departSpeed="random"/>
	<trip id="42" type="veh_bike" depart="16.54447970237444" from="pcr_entry" to="iqbalminar_exit" departLane="best" departSpeed="random"/>
	<trip id="43" type="veh_passenger" depart="16.938395885764308" from="pcr_entry" to="oldpssaifabad_exit" departLane="best" departSpeed="random"/>
	<trip id="44" type="veh_passenger" depart="17.332312069154174" from="oldpssaifabad_entry" to="pcr_exit" departLane="best" departSpeed="random"/>
	<trip id="45" type="veh_bike" depart="17.726228252544043" from="pcr_entry" to="oldpssaifabad_exit" departLane="best" departSpeed="random"/>
	<trip id="46" type="veh_passenger" depart="18.12014443593391" from="iqbalminar_entry" to="pcr_exit" departLane="best" departSpeed="random"/>
	<trip id="47" type="veh_passenger" depart="18.51406061932378" from="oldpssaifabad_entry" to="pcr_exit" departLane="best" departSpeed="random"/>
	<trip id="48" type="veh_passenger" depart="18.907976802713645" from="pcr_entry" to="oldpssaifabad_exit" departLane="best" departSpeed="random"/>
	<trip id="49" type="veh_passenger" depart="19.301892986103514" from="pcr_entry" to="iqbalminar_exit" departLane="best" departSpeed="random"/>
	<trip id="50" type="veh_passenger" depart="19.69580916949338" from="oldpssaifabad_entry" to="pcr_exit" departLane="best" departSpeed="random"/>
	<trip id="51" type="veh_bike" depart="20.08972535288325" from="iqbalminar_entry" to="pcr_exit" departLane="best" departSpeed="random"/>
	<trip id="52" type="veh_bike" depart="20.483641536273115" from="oldpssaifabad_entry" to="iqbalminar_exit" departLane="best" departSpeed="random"/>
	<trip id="53" type="veh_bike" depart="20.87755771966298" from="pcr_entry" to="oldpssaifabad_exit" departLane="best" departSpeed="random"/>
	<trip id="54" type="veh_bike" depart="21.27147390305285" from="pcr_entry" to="iqbalminar_exit" departLane="best" departSpeed="random"/>
	<trip id="55" type="veh_passenger" depart="21.665390086442716" from="iqbalminar_entry" to="iqbalminar_exit" departLane="best" departSpeed="random"/>
	<trip id="56" type="veh_bus" depart="22.059306269832586" from="iqbalminar_entry" to="pcr_exit" departLane="best" departSpeed="random"/>
	<trip id="57" type="veh_bike" depart="22.453222453222452" from="pcr_entry" to="oldpssaifabad_exit" departLane="best" departSpeed="random"/>
	<trip id="58" type="veh_passenger" depart="22.84713863661232" from="pcr_entry" to="iqbalminar_exit" departLane="best" departSpeed="random"/>
	<trip id="59" type="veh_passenger" depart="23.241054820002187" from="pcr_entry" to="oldpssaifabad_exit" departLane="best" departSpeed="random"/>
	<trip id="60" type="veh_bike" depart="23.634971003392057" from="pcr_entry" to="pcr_exit" departLane="best" departSpeed="random"/>
	<trip id="61" type="veh_bike" depart="24.028887186781922" from="oldpssaifabad_entry" to="pcr_exit" departLane="best" departSpeed="random"/>
	<trip id="62" type="veh_bike" depart="24.422803370171792" from="pcr_entry" to="oldpssaifabad_exit" departLane="best" departSpeed="random"/>
	<trip id="63" type="veh_bike" depart="24.816719553561658" from="oldpssaifabad_entry" to="iqbalminar_exit" departLane="best" departSpeed="random"/>
	<trip id="64" type="veh_bike" depart="25.210635736951527" from="pcr_entry" to="oldpssaifabad_exit" departLane="best" departSpeed="random"/>
	<trip id="65" type="veh_bike" depart="25.604551920341393" from="pcr_entry" to="oldpssaifabad_exit" departLane="best" departSpeed="random"/>
	<trip id="66" type="veh_other" depart="25.998468103731263" from="iqbalminar_entry" to="pcr_exit" departLane="best" departSpeed="random"/>
	<trip id="67" type="veh_other" depart="26.39238428712113" from="pcr_entry" to="oldpssaifabad_exit" departLane="best" departSpeed="random"/>
	<trip id="68" type="veh_bus" depart="26.786300470510998" from="oldpssaifabad_entry" to="pcr_exit" departLane="best" departSpeed="random"/>
	<trip id="69" type="veh_bike" depart="27.180216653900864" from="pcr_entry" to="oldpssaifabad_exit" departLane="best" departSpeed="random"/>
	<trip id="70" type="veh_passenger" depart="27.574132837290733" from="pcr_entry" to="oldpssaifabad_exit" departLane="best" departSpeed="random"/>
	<trip id="71" type="veh_passenger" depart="27.9680490206806" from="oldpssaifabad_entry" to="pcr_exit" departLane="best" departSpeed="random"/>
	<trip id="72" type="veh_bike" depart="28.36196520407047" from="pcr_entry" to="oldpssaifabad_exit" departLane="best" departSpeed="random"/>
	<trip id="73" type="veh_bike" depart="28.755881387460335" from="pcr_entry" to="oldpssaifabad_exit" departLane="best" departSpeed="random"/>
	<trip id="74" type="veh_bike" depart="29.149797570850204" from="oldpssaifabad_entry" to="pcr_exit" departLane="best" departSpeed="random"/>
	<trip id="75" type="veh_bus" depart="29.54371375424007" from="iqbalminar_entry" to="oldpssaifabad_exit" departLane="best" departSpeed="random"/>
	<trip id="76" type="veh_bus" depart="29.93762993762994" from="pcr_entry" to="iqbalminar_exit" departLane="best" departSpeed="random"/>
	<trip id="77" type="veh_passenger" depart="30.331546121019805" from="pcr_entry" to="oldpssaifabad_exit" departLane="best" departSpeed="random"/>
	<trip id="78" type="veh_passenger" depart="30.72546230440967" from="oldpssaifabad_entry" to="pcr_exit" departLane="best" departSpeed="random"/>
	<trip id="79" type="veh_bike" depart="31.11937848779954" from="pcr_entry" to="oldpssaifabad_exit" departLane="best" departSpeed="random"/>
	<trip id="80" type="veh_bike" depart="31.513294671189406" from="iqbalminar_entry" to="pcr_exit" departLane="best" departSpeed="random"/>
	<trip id="81" type="veh_bike" depart="31.907210854579276" from="oldpssaifabad_entry" to="oldpssaifabad_exit" departLane="best" departSpeed="random"/>
	<trip id="82" type="veh_bike" depart="32.301127037969145" from="pcr_entry" to="iqbalminar_exit" departLane="best" departSpeed="random"/>
	<trip id="83" type="veh_passenger" depart="32.69504322135901" from="pcr_entry" to="oldpssaifabad_exit" departLane="best" departSpeed="random"/>
	<trip id="84" type="veh_bike" depart="33.08895940474888" from="oldpssaifabad_entry" to="pcr_exit" departLane="best" departSpeed="random"/>
	<trip id="85" type="veh_passenger" depart="33.48287558813875" from="pcr_entry" to="oldpssaifabad_exit" departLane="best" departSpeed="random"/>
	<trip id="86" type="veh_bike" depart="33.876791771528616" from="pcr_entry" to="oldpssaifabad_exit" departLane="best" departSpeed="random"/>
	<trip id="87" type="veh_bike" depart="34.27070795491848" from="pcr_entry" to="oldpssaifabad_exit" departLane="best" departSpeed="random"/>
	<trip id="88" type="veh_bike" depart="34.66462413830835" from="oldpssaifabad_entry" to="pcr_exit" departLane="best" departSpeed="random"/>
	<trip id="89" type="veh_bike" depart="35.05854032169822" from="pcr_entry" to="oldpssaifabad_exit" departLane="best" departSpeed="random"/>
	<trip id="90" type="veh_bike" depart="35.45245650508809" from="pcr_entry" to="iqbalminar_exit" departLane="best" departSpeed="random"/>
	<trip id="91" type="veh_bike" depart="35.84637268847795" from="pcr_entry" to="oldpssaifabad_exit" departLane="best" departSpeed="random"/>
	<trip id="92" type="veh_bike" depart="36.24028887186782" from="pcr_entry" to="iqbalminar_exit" departLane="best" departSpeed="random"/>
	<trip id="93" type="veh_bike" depart="36.63420505525769" from="pcr_entry" to="oldpssaifabad_exit" departLane="best" departSpeed="random"/>
	<trip id="94" type="veh_passenger" depart="37.02812123864756" from="iqbalminar_entry" to="oldpssaifabad_exit" departLane="best" departSpeed="random"/>
	<trip id="95" type="veh_passenger" depart="37.42203742203742" from="pcr_entry" to="oldpssaifabad_exit" departLane="best" departSpeed="random"/>
	<trip id="96" type="veh_other" depart="37.81595360542729" from="pcr_entry" to="oldpssaifabad_exit" departLane="best" departSpeed="random"/>
	<trip id="97" type="veh_bike" depart="38.20986978881716" from="pcr_entry" to="oldpssaifabad_exit" departLane="best" departSpeed="random"/>
	<trip id="98" type="veh_other" depart="38.60378597220703" from="pcr_entry" to="oldpssaifabad_exit" departLane="best" departSpeed="random"/>
	<trip id="99" type="veh_bike" depart="38.99770215559689" from="pcr_entry" to="oldpssaifabad_exit" departLane="best" departSpeed="random"/>
	<trip id="100" type="veh_passenger" depart="39.39161833898676" from="pcr_entry" to="oldpssaifabad_exit" departLane="best" departSpeed="random"/>
	<trip id="101" type="veh_passenger" depart="39.78553452237663" from="pcr_entry" to="oldpssaifabad_exit" departLane="best" departSpeed="random"/>
	<trip id="102" type="veh_passenger" depart="40.1794507057665" from="oldpssaifabad_entry" to="pcr_exit" departLane="best" departSpeed="random"/>
	<trip id="103" type="veh_bike" depart="40.57336688915636" from="oldpssaifabad_entry" to="iqbalminar_exit" departLane="best" departSpeed="random"/>
	<trip id="104" type="veh_bike" depart="40.96728307254623" from="oldpssaifabad_entry" to="iqbalminar_exit" departLane="best" departSpeed="random"/>
	<trip id="105" type="veh_other" depart="41.3611992559361" from="oldpssaifabad_entry" to="iqbalminar_exit" departLane="best" departSpeed="random"/>
	<trip id="106" type="veh_bike" depart="41.75511543932596" from="oldpssaifabad_entry" to="pcr_exit" departLane="best" departSpeed="random"/>
	<trip id="107" type="veh_bike" depart="42.14903162271583" from="pcr_entry" to="iqbalminar_exit" departLane="best" departSpeed="random"/>
	<trip id="108" type="veh_bike" depart="42.5429478061057" from="pcr_entry" to="oldpssaifabad_exit" departLane="best" departSpeed="random"/>
	<trip id="109" type="veh_other" depart="42.93686398949557" from="pcr_entry" to="oldpssaifabad_exit" departLane="best" departSpeed="random"/>
	<trip id="110" type="veh_bike" depart="43.33078017288543" from="iqbalminar_entry" to="oldpssaifabad_exit" departLane="best" departSpeed="random"/>
	<trip id="111" type="veh_bike" depart="43.7246963562753" from="oldpssaifabad_entry" to="iqbalminar_exit" departLane="best" departSpeed="random"/>
	<trip id="112" type="veh_passenger" depart="44.11861253966517" from="pcr_entry" to="oldpssaifabad_exit" departLane="best" departSpeed="random"/>
	<trip id="113" type="veh_bike" depart="44.51252872305504" from="pcr_entry" to="oldpssaifabad_exit" departLane="best" departSpeed="random"/>
	<trip id="114" type="veh_passenger" depart="44.906444906444904" from="pcr_entry" to="oldpssaifabad_exit" departLane="best" departSpeed="random"/>
	<trip id="115" type="veh_other" depart="45.30036108983477" from="oldpssaifabad_entry" to="pcr_exit" departLane="best" departSpeed="random"/>
	<trip id="116" type="veh_bike" depart="45.69427727322464" from="oldpssaifabad_entry" to="pcr_exit" departLane="best" departSpeed="random"/>
	<trip id="117" type="veh_bike" depart="46.08819345661451" from="pcr_entry" to="oldpssaifabad_exit" departLane="best" departSpeed="random"/>
	<trip id="118" type="veh_other" depart="46.482109640004374" from="oldpssaifabad_entry" to="pcr_exit" departLane="best" departSpeed="random"/>
	<trip id="119" type="veh_bike" depart="46.876025823394244" from="oldpssaifabad_entry" to="pcr_exit" departLane="best" departSpeed="random"/>
	<trip id="120" type="veh_bike" depart="47.26994200678411" from="pcr_entry" to="oldpssaifabad_exit" departLane="best" departSpeed="random"/>
	<trip id="121" type="veh_passenger" depart="47.66385819017398" from="oldpssaifabad_entry" to="iqbalminar_exit" departLane="best" departSpeed="random"/>
	<trip id="122" type="veh_passenger" depart="48.057774373563845" from="pcr_entry" to="oldpssaifabad_exit" departLane="best" departSpeed="random"/>
	<trip id="123" type="veh_bike" depart="48.451690556953714" from="pcr_entry" to="oldpssaifabad_exit" departLane="best" departSpeed="random"/>
	<trip id="124" type="veh_bike" depart="48.845606740343584" from="pcr_entry" to="oldpssaifabad_exit" departLane="best" departSpeed="random"/>
	<trip id="125" type="veh_bike" depart="49.23952292373345" from="pcr_entry" to="oldpssaifabad_exit" departLane="best" departSpeed="random"/>
	<trip id="126" type="veh_passenger" depart="49.633439107123316" from="pcr_entry" to="oldpssaifabad_exit" departLane="best" departSpeed="random"/>
	<trip id="127" type="veh_passenger" depart="50.027355290513185" from="pcr_entry" to="oldpssaifabad_exit" departLane="best" departSpeed="random"/>
	<trip id="128" type="veh_other" depart="50.421271473903055" from="oldpssaifabad_entry" to="pcr_exit" departLane="best" departSpeed="random"/>
	<trip id="129" type="veh_bike" depart="50.815187657292924" from="pcr_entry" to="pcr_exit" departLane="best" departSpeed="random"/>
	<trip id="130" type="veh_bike" depart="51.209103840682786" from="pcr_entry" to="oldpssaifabad_exit" departLane="best" departSpeed="random"/>
	<trip id="131" type="veh_other" depart="51.603020024072656" from="pcr_entry" to="oldpssaifabad_exit" departLane="best" departSpeed="random"/>
	<trip id="132" type="veh_passenger" depart="51.996936207462525" from="oldpssaifabad_entry" to="pcr_exit" departLane="best" departSpeed="random"/>
	<trip id="133" type="veh_passenger" depart="52.39085239085239" from="oldpssaifabad_entry" to="pcr_exit" departLane="best" departSpeed="random"/>
	<trip id="134" type="veh_passenger" depart="52.78476857424226" from="oldpssaifabad_entry" to="pcr_exit" departLane="best" departSpeed="random"/>
	<trip id="135" type="veh_bike" depart="53.178684757632126" from="pcr_entry" to="oldpssaifabad_exit" departLane="best" departSpeed="random"/>
	<trip id="136" type="veh_passenger" depart="53.572600941021996" from="oldpssaifabad_entry" to="iqbalminar_exit" departLane="best" departSpeed="random"/>
	<trip id="137" type="veh_other" depart="53.96651712441186" from="oldpssaifabad_entry" to="pcr_exit" departLane="best" departSpeed="random"/>
	<trip id="138" type="veh_bike" depart="54.36043330780173" from="pcr_entry" to="oldpssaifabad_exit" departLane="best" departSpeed="random"/>
	<trip id="139" type="veh_passenger" depart="54.7543494911916" from="oldpssaifabad_entry" to="pcr_exit" departLane="best" departSpeed="random"/>
	<trip id="140" type="veh_bike" depart="55.14826567458147" from="oldpssaifabad_entry" to="pcr_exit" departLane="best" departSpeed="random"/>
	<trip id="141" type="veh_bike" depart="55.54218185797133" from="iqbalminar_entry" to="oldpssaifabad_exit" departLane="best" departSpeed="random"/>
	<trip id="142" type="veh_bike" depart="55.9360980413612" from="pcr_entry" to="oldpssaifabad_exit" departLane="best" departSpeed="random"/>
	<trip id="143" type="veh_bike" depart="56.33001422475107" from="pcr_entry" to="oldpssaifabad_exit" departLane="best" departSpeed="random"/>
	<trip id="144" type="veh_passenger" depart="56.72393040814094" from="pcr_entry" to="oldpssaifabad_exit" departLane="best" departSpeed="random"/>
	<trip id="145" type="veh_bike" depart="57.1178465915308" from="pcr_entry" to="oldpssaifabad_exit" departLane="best" departSpeed="random"/>
	<trip id="146" type="veh_passenger" depart="57.51176277492067" from="pcr_entry" to="iqbalminar_exit" departLane="best" departSpeed="random"/>
	<trip id="147" type="veh_bike" depart="57.90567895831054" from="pcr_entry" to="oldpssaifabad_exit" departLane="best" departSpeed="random"/>
	<trip id="148" type="veh_bike" depart="58.29959514170041" from="oldpssaifabad_entry" to="iqbalminar_exit" departLane="best" departSpeed="random"/>
	<trip id="149" type="veh_passenger" depart="58.69351132509027" from="pcr_entry" to="oldpssaifabad_exit" departLane="best" departSpeed="random"/>
	<trip id="150" type="veh_other" depart="59.08742750848014" from="pcr_entry" to="oldpssaifabad_exit" departLane="best" departSpeed="random"/>
	<trip id="151" type="veh_passenger" depart="59.48134369187001" from="pcr_entry" to="oldpssaifabad_exit" departLane="best" departSpeed="random"/>
	<trip id="152" type="veh_passenger" depart="59.87525987525988" from="pcr_entry" to="iqbalminar_exit" departLane="best" departSpeed="random"/>
	<trip id="153" type="veh_passenger" depart="60.26917605864974" from="pcr_entry" to="oldpssaifabad_exit" departLane="best" departSpeed="random"/>
	<trip id="154" type="veh_bike" depart="60.66309224203961" from="pcr_entry" to="oldpssaifabad_exit" departLane="best" departSpeed="random"/>
	<trip id="155" type="veh_bike" depart="61.05700842542948" from="pcr_entry" to="oldpssaifabad_exit" departLane="best" departSpeed="random"/>
	<trip id="156" type="veh_passenger" depart="61.45092460881934" from="oldpssaifabad_entry" to="pcr_exit" departLane="best" departSpeed="random"/>
	<trip id="157" type="veh_passenger" depart="61.84484079220921" from="pcr_entry" to="oldpssaifabad_exit" departLane="best" departSpeed="random"/>
	<trip id="158" type="veh_bike" depart="62.23875697559908" from="pcr_entry" to="oldpssaifabad_exit" departLane="best" departSpeed="random"/>
	<trip id="159" type="veh_passenger" depart="62.63267315898895" from="pcr_entry" to="oldpssaifabad_exit" departLane="best" departSpeed="random"/>
	<trip id="160" type="veh_passenger" depart="63.02658934237881" from="pcr_entry" to="iqbalminar_exit" departLane="best" departSpeed="random"/>
	<trip id="161" type="veh_bike" depart="63.42050552576868" from="pcr_entry" to="oldpssaifabad_exit" departLane="best" departSpeed="random"/>
	<trip id="162" type="veh_bike" depart="63.81442170915855" from="oldpssaifabad_entry" to="pcr_exit" departLane="best" departSpeed="random"/>
	<trip id="163" type="veh_bike" depart="64.20833789254841" from="pcr_entry" to="oldpssaifabad_exit" departLane="best" departSpeed="random"/>
	<trip id="164" type="veh_passenger" depart="64.60225407593829" from="pcr_entry" to="oldpssaifabad_exit" departLane="best" departSpeed="random"/>
	<trip id="165" type="veh_passenger" depart="64.99617025932815" from="pcr_entry" to="oldpssaifabad_exit" departLane="best" departSpeed="random"/>
	<trip id="166" type="veh_passenger" depart="65.39008644271802" from="pcr_entry" to="oldpssaifabad_exit" departLane="best" departSpeed="random"/>
	<trip id="167" type="veh_bike" depart="65.78400262610789" from="oldpssaifabad_entry" to="pcr_exit" departLane="best" departSpeed="random"/>
	<trip id="168" type="veh_passenger" depart="66.17791880949775" from="oldpssaifabad_entry" to="pcr_exit" departLane="best" departSpeed="random"/>
	<trip id="169" type="veh_bike" depart="66.57183499288763" from="pcr_entry" to="oldpssaifabad_exit" departLane="best" departSpeed="random"/>
	<trip id="170" type="veh_bike" depart="66.9657511762775" from="iqbalminar_entry" to="pcr_exit" departLane="best" departSpeed="random"/>
	<trip id="171" type="veh_passenger" depart="67.35966735966736" from="pcr_entry" to="oldpssaifabad_exit" departLane="best" departSpeed="random"/>
	<trip id="172" type="veh_other" depart="67.75358354305723" from="pcr_entry" to="oldpssaifabad_exit" departLane="best" departSpeed="random"/>
	<trip id="173" type="veh_passenger" depart="68.1474997264471" from="pcr_entry" to="oldpssaifabad_exit" departLane="best" departSpeed="random"/>
	<trip id="174" type="veh_bike" depart="68.54141590983696" from="pcr_entry" to="oldpssaifabad_exit" departLane="best" departSpeed="random"/>
	<trip id="175" type="veh_bike" depart="68.93533209322683" from="oldpssaifabad_entry" to="pcr_exit" departLane="best" departSpeed="random"/>
	<trip id="176" type="veh_passenger" depart="69.3292482766167" from="pcr_entry" to="oldpssaifabad_exit" departLane="best" departSpeed="random"/>
	<trip id="177" type="veh_passenger" depart="69.72316446000657" from="oldpssaifabad_entry" to="pcr_exit" departLane="best" departSpeed="random"/>
	<trip id="178" type="veh_passenger" depart="70.11708064339643" from="pcr_entry" to="oldpssaifabad_exit" departLane="best" departSpeed="random"/>
	<trip id="179" type="veh_bus" depart="70.5109968267863" from="pcr_entry" to="oldpssaifabad_exit" departLane="best" departSpeed="random"/>
	<trip id="180" type="veh_bike" depart="70.90491301017617" from="pcr_entry" to="oldpssaifabad_exit" departLane="best" departSpeed="random"/>
	<trip id="181" type="veh_bike" depart="71.29882919356604" from="oldpssaifabad_entry" to="iqbalminar_exit" departLane="best" departSpeed="random"/>
	<trip id="182" type="veh_bike" depart="71.6927453769559" from="pcr_entry" to="iqbalminar_exit" departLane="best" departSpeed="random"/>
	<trip id="183" type="veh_passenger" depart="72.08666156034577" from="pcr_entry" to="oldpssaifabad_exit" departLane="best" departSpeed="random"/>
	<trip id="184" type="veh_bike" depart="72.48057774373564" from="pcr_entry" to="iqbalminar_exit" departLane="best" departSpeed="random"/>
	<trip id="185" type="veh_other" depart="72.8744939271255" from="oldpssaifabad_entry" to="pcr_exit" departLane="best" departSpeed="random"/>
	<trip id="186" type="veh_bike" depart="73.26841011051538" from="pcr_entry" to="oldpssaifabad_exit" departLane="best" departSpeed="random"/>
	<trip id="187" type="veh_other" depart="73.66232629390524" from="iqbalminar_entry" to="pcr_exit" departLane="best" departSpeed="random"/>
	<trip id="188" type="veh_bus" depart="74.05624247729511" from="pcr_entry" to="oldpssaifabad_exit" departLane="best" departSpeed="random"/>
	<trip id="189" type="veh_bike" depart="74.45015866068498" from="oldpssaifabad_entry" to="pcr_exit" departLane="best" departSpeed="random"/>
	<trip id="190" type="veh_passenger" depart="74.84407484407484" from="pcr_entry" to="iqbalminar_exit" departLane="best" departSpeed="random"/>
	<trip id="191" type="veh_bike" depart="75.23799102746472" from="pcr_entry" to="oldpssaifabad_exit" departLane="best" departSpeed="random"/>
	<trip id="192" type="veh_bike" depart="75.63190721085458" from="pcr_entry" to="oldpssaifabad_exit" departLane="best" departSpeed="random"/>
	<trip id="193" type="veh_other" depart="76.02582339424444" from="pcr_entry" to="iqbalminar_exit" departLane="best" departSpeed="random"/>
	<trip id="194" type="veh_bike" depart="76.41973957763432" from="oldpssaifabad_entry" to="pcr_exit" departLane="best" departSpeed="random"/>
	<trip id="195" type="veh_bus" depart="76.81365576102418" from="pcr_entry" to="oldpssaifabad_exit" departLane="best" departSpeed="random"/>
	<trip id="196" type="veh_bike" depart="77.20757194441406" from="pcr_entry" to="oldpssaifabad_exit" departLane="best" departSpeed="random"/>
	<trip id="197" type="veh_bike" depart="77.60148812780392" from="oldpssaifabad_entry" to="pcr_exit" departLane="best" departSpeed="random"/>
	<trip id="198" type="veh_passenger" depart="77.99540431119378" from="pcr_entry" to="oldpssaifabad_exit" departLane="best" departSpeed="random"/>
	<trip id="199" type="veh_bike" depart="78.38932049458366" from="oldpssaifabad_entry" to="pcr_exit" departLane="best" departSpeed="random"/>
	<trip id="200" type="veh_passenger" depart="78.78323667797352" from="pcr_entry" to="iqbalminar_exit" departLane="best" departSpeed="random"/>
	<trip id="201" type="veh_passenger" depart="79.17715286136338" from="oldpssaifabad_entry" to="pcr_exit" departLane="best" departSpeed="random"/>
	<trip id="202" type="veh_passenger" depart="79.57106904475326" from="pcr_entry" to="oldpssaifabad_exit" departLane="best" departSpeed="random"/>
	<trip id="203" type="veh_passenger" depart="79.96498522814312" from="pcr_entry" to="oldpssaifabad_exit" departLane="best" departSpeed="random"/>
	<trip id="204" type="veh_bike" depart="80.358901411533" from="oldpssaifabad_entry" to="pcr_exit" departLane="best" departSpeed="random"/>
	<trip id="205" type="veh_bike" depart="80.75281759492286" from="oldpssaifabad_entry" to="pcr_exit" departLane="best" departSpeed="random"/>